Version 4
SHEET 1 880 680
WIRE 112 144 16 144
WIRE 288 144 192 144
WIRE 448 144 288 144
WIRE 608 144 448 144
WIRE 16 192 16 144
WIRE 288 192 288 144
WIRE 448 192 448 144
WIRE 608 192 608 144
WIRE 240 208 192 208
WIRE 16 336 16 272
WIRE 192 336 192 208
WIRE 192 336 16 336
WIRE 288 336 288 272
WIRE 288 336 192 336
WIRE 448 336 448 256
WIRE 448 336 288 336
WIRE 608 336 608 272
WIRE 608 336 448 336
WIRE 16 352 16 336
FLAG 16 352 0
FLAG 32 48 0
FLAG 32 -32 GATE
FLAG 240 256 GATE
SYMBOL ind 96 160 R270
WINDOW 0 32 56 VTop 2
WINDOW 3 5 56 VBottom 2
SYMATTR InstName L1
SYMATTR Value 1mH
SYMBOL cap 432 192 R0
SYMATTR InstName C1
SYMATTR Value 330µF
SYMBOL voltage 16 176 R0
SYMATTR InstName V1
SYMATTR Value 5V
SYMBOL res 592 176 R0
SYMATTR InstName R1
SYMATTR Value 12
SYMBOL sw 288 176 R0
SYMATTR InstName S1
SYMATTR Value SWITCH
SYMBOL voltage 32 -48 R0
WINDOW 123 0 0 Left 0
WINDOW 39 0 0 Left 0
SYMATTR InstName V_SWITCH
SYMATTR Value PULSE(0 5 0 5n 5n 5.8u 10u 1000)
TEXT 240 -16 Left 2 !.model SWITCH SW(Ron=0.5 Roff=1Meg Vt=2 Vh=.4)
TEXT -18 376 Left 2 !.tran 10m startup
